stage 6/IEEE30_S2.raw
 0,   100.00, 33, 0, 0, 60.00         / PSS/E 33 RAW  IEEE 30-Bus AO1 As-Operated
 IEEE 30-BUS TEST CASE - S3: Bus31 via Bus28+Bus30, Gen Bus32(400MW)+Bus33(300MW)
 GENERATED FOR AIP TECHNICAL EVALUATION TOOL

@BUS
 1,'BUS-1    ',132.0, 3, 1, 1, 1, 1.0600, 0.0000,  1.1000, 0.9000, 1.0500, 0.9500
 2,'BUS-2    ',132.0, 2, 1, 1, 1, 1.0430,-5.4900,  1.1000, 0.9000, 1.0500, 0.9500
 3,'BUS-3    ',132.0, 1, 1, 1, 1, 1.0280,-7.9600,  1.1000, 0.9000, 1.0500, 0.9500
 4,'BUS-4    ',132.0, 1, 1, 1, 1, 1.0220,-9.6200,  1.1000, 0.9000, 1.0500, 0.9500
 5,'BUS-5    ',132.0, 2, 1, 1, 1, 1.0100,-14.37,   1.1000, 0.9000, 1.0500, 0.9500
 6,'BUS-6    ',132.0, 1, 1, 1, 1, 1.0150,-11.34,   1.1000, 0.9000, 1.0500, 0.9500
 7,'BUS-7    ',132.0, 1, 1, 1, 1, 1.0020,-13.12,   1.1000, 0.9000, 1.0500, 0.9500
 8,'BUS-8    ',132.0, 2, 1, 1, 1, 1.0100,-12.10,   1.1000, 0.9000, 1.0500, 0.9500
 9,'BUS-9    ',33.00, 1, 1, 1, 1, 1.0510,-14.38,   1.1000, 0.9000, 1.0500, 0.9500
10,'BUS-10   ',33.00, 1, 1, 1, 1, 1.0460,-15.97,   1.1000, 0.9000, 1.0500, 0.9500
11,'BUS-11   ',11.00, 1, 1, 1, 1, 1.0820,-14.39,   1.1000, 0.9000, 1.0500, 0.9500
12,'BUS-12   ',33.00, 1, 1, 1, 1, 1.0570,-15.24,   1.1000, 0.9000, 1.0500, 0.9500
13,'BUS-13   ',11.00, 2, 1, 1, 1, 1.0710,-15.24,   1.1000, 0.9000, 1.0500, 0.9500
14,'BUS-14   ',33.00, 1, 1, 1, 1, 1.0420,-16.13,   1.1000, 0.9000, 1.0500, 0.9500
15,'BUS-15   ',33.00, 1, 1, 1, 1, 1.0380,-16.22,   1.1000, 0.9000, 1.0500, 0.9500
16,'BUS-16   ',33.00, 1, 1, 1, 1, 1.0450,-15.83,   1.1000, 0.9000, 1.0500, 0.9500
17,'BUS-17   ',33.00, 1, 1, 1, 1, 1.0400,-16.14,   1.1000, 0.9000, 1.0500, 0.9500
18,'BUS-18   ',33.00, 1, 1, 1, 1, 1.0280,-16.82,   1.1000, 0.9000, 1.0500, 0.9500
19,'BUS-19   ',33.00, 1, 1, 1, 1, 1.0260,-17.00,   1.1000, 0.9000, 1.0500, 0.9500
20,'BUS-20   ',33.00, 1, 1, 1, 1, 1.0300,-16.80,   1.1000, 0.9000, 1.0500, 0.9500
21,'BUS-21   ',33.00, 1, 1, 1, 1, 1.0330,-16.42,   1.1000, 0.9000, 1.0500, 0.9500
22,'BUS-22   ',33.00, 2, 1, 1, 1, 1.0350,-15.44,   1.1000, 0.9000, 1.0500, 0.9500
23,'BUS-23   ',33.00, 1, 1, 1, 1, 1.0270,-16.61,   1.1000, 0.9000, 1.0500, 0.9500
24,'BUS-24   ',33.00, 1, 1, 1, 1, 1.0210,-16.78,   1.1000, 0.9000, 1.0500, 0.9500
25,'BUS-25   ',33.00, 1, 1, 1, 1, 1.0170,-16.35,   1.1000, 0.9000, 1.0500, 0.9500
26,'BUS-26   ',33.00, 1, 1, 1, 1, 1.0000,-16.78,   1.1000, 0.9000, 1.0500, 0.9500
27,'BUS-27   ',33.00, 1, 1, 1, 1, 1.0230,-15.82,   1.1000, 0.9000, 1.0500, 0.9500
28,'BUS-28   ',132.0, 1, 1, 1, 1, 1.0180,-10.88,   1.1000, 0.9000, 1.0500, 0.9500
29,'BUS-29   ',33.00, 1, 1, 1, 1, 1.0140,-15.78,   1.1000, 0.9000, 1.0500, 0.9500
30,'BUS-30   ',33.00, 1, 1, 1, 1, 1.0030,-16.54,   1.1000, 0.9000, 1.0500, 0.9500
31,'BUS-31   ',132.0, 1, 1, 1, 1, 1.0080,-16.88,  1.1000, 0.9000, 1.0500, 0.9500
32,'BUS-32   ',132.0, 2, 1, 1, 1, 1.0250,-14.12,  1.1000, 0.9000, 1.0500, 0.9500
33,'BUS-33   ',132.0, 2, 1, 1, 1, 1.0200,-13.88,  1.1000, 0.9000, 1.0500, 0.9500
0 / END OF BUS DATA
@LOAD
 2,'1 ', 1, 1, 1, 21.700, 12.700, 0.000, 0.000, 0.000, 0.000, 1
 3,'1 ', 1, 1, 1,  2.400,  1.200, 0.000, 0.000, 0.000, 0.000, 1
 4,'1 ', 1, 1, 1,  7.600,  1.600, 0.000, 0.000, 0.000, 0.000, 1
 5,'1 ', 1, 1, 1, 94.200, 19.000, 0.000, 0.000, 0.000, 0.000, 1
 7,'1 ', 1, 1, 1, 22.800, 10.900, 0.000, 0.000, 0.000, 0.000, 1
 8,'1 ', 1, 1, 1, 30.000, 30.000, 0.000, 0.000, 0.000, 0.000, 1
10,'1 ', 1, 1, 1,  5.800,  2.000, 0.000, 0.000, 0.000, 0.000, 1
12,'1 ', 1, 1, 1, 11.200,  7.500, 0.000, 0.000, 0.000, 0.000, 1
14,'1 ', 1, 1, 1,  6.200,  1.600, 0.000, 0.000, 0.000, 0.000, 1
15,'1 ', 1, 1, 1,  8.200,  2.500, 0.000, 0.000, 0.000, 0.000, 1
16,'1 ', 1, 1, 1,  3.500,  1.800, 0.000, 0.000, 0.000, 0.000, 1
17,'1 ', 1, 1, 1,  9.000,  5.800, 0.000, 0.000, 0.000, 0.000, 1
18,'1 ', 1, 1, 1,  3.200,  0.900, 0.000, 0.000, 0.000, 0.000, 1
19,'1 ', 1, 1, 1,  9.500,  3.400, 0.000, 0.000, 0.000, 0.000, 1
20,'1 ', 1, 1, 1,  2.200,  0.700, 0.000, 0.000, 0.000, 0.000, 1
21,'1 ', 1, 1, 1, 17.500, 11.200, 0.000, 0.000, 0.000, 0.000, 1
23,'1 ', 1, 1, 1,  3.200,  1.600, 0.000, 0.000, 0.000, 0.000, 1
24,'1 ', 1, 1, 1,  8.700,  6.700, 0.000, 0.000, 0.000, 0.000, 1
26,'1 ', 1, 1, 1,  3.500,  2.300, 0.000, 0.000, 0.000, 0.000, 1
29,'1 ', 1, 1, 1,  2.400,  0.900, 0.000, 0.000, 0.000, 0.000, 1
30,'1 ', 1, 1, 1, 10.600,  1.900, 0.000, 0.000, 0.000, 0.000, 1
31,'1 ', 1, 1, 1,500.000, 97.800, 0.000, 0.000, 0.000, 0.000, 1
0 / END OF LOAD DATA
@GENERATOR
 1,'1 ',220.4,-16.5,  80.0,-20.0,1.060,  0, 100.00,0.0,0.0,0.0,0.0,1.0,1,100.0,400.0,  0.0
 2,'1 ', 40.0, 42.3,  50.0,-20.0,1.043,  0, 100.00,0.0,0.0,0.0,0.0,1.0,1, 20.0, 80.0, 20.0
 5,'1 ',  0.0, 36.8,  40.0,-15.0,1.010,  0, 100.00,0.0,0.0,0.0,0.0,1.0,1,  0.0,150.0,  0.0
 8,'1 ',  0.0, 37.3,  40.0,-10.0,1.010,  0, 100.00,0.0,0.0,0.0,0.0,1.0,1,  0.0, 35.0,  0.0
13,'1 ', 85.0, 28.4,  44.7,-10.0,1.071,  0, 100.00,0.0,0.0,0.0,0.0,1.0,1, 40.0,120.0, 40.0
22,'1 ', 60.0, 14.1,  24.3, -6.0,1.035,  0, 100.00,0.0,0.0,0.0,0.0,1.0,1, 20.0, 80.0, 20.0
32,'1 ',400.0, 88.4, 180.0,-50.0,1.025,  0, 100.00,0.0,0.0,0.0,0.0,1.0,1,100.0,500.0, 80.0
33,'1 ',300.0, 64.2, 140.0,-40.0,1.020,  0, 100.00,0.0,0.0,0.0,0.0,1.0,1,100.0,400.0, 60.0
0 / END OF GENERATOR DATA
@BRANCH
 1, 2,'1 ',0.01938,0.05917,0.05280,130.0,130.0,130.0,0.0,0.0,0.0,0.0, 1,1,0.0
 1, 3,'1 ',0.05403,0.22304,0.04920, 65.0, 65.0, 65.0,0.0,0.0,0.0,0.0, 1,1,0.0
 2, 4,'1 ',0.04699,0.19797,0.04380, 65.0, 65.0, 65.0,0.0,0.0,0.0,0.0, 1,1,0.0
 3, 4,'1 ',0.06701,0.17103,0.03460, 65.0, 65.0, 65.0,0.0,0.0,0.0,0.0, 1,1,0.0
 2, 5,'1 ',0.02348,0.09919,0.02190, 65.0, 65.0, 65.0,0.0,0.0,0.0,0.0, 1,1,0.0
 2, 6,'1 ',0.01998,0.08450,0.01870, 65.0, 65.0, 65.0,0.0,0.0,0.0,0.0, 1,1,0.0
 4, 6,'1 ',0.01801,0.07153,0.01580, 45.0, 45.0, 45.0,0.0,0.0,0.0,0.0, 1,1,0.0
 5, 7,'1 ',0.05403,0.22304,0.04920, 45.0, 45.0, 45.0,0.0,0.0,0.0,0.0, 1,1,0.0
 6, 7,'1 ',0.06701,0.17103,0.03460, 45.0, 45.0, 45.0,0.0,0.0,0.0,0.0, 1,1,0.0
 6, 8,'1 ',0.01348,0.05811,0.01280, 32.0, 32.0, 32.0,0.0,0.0,0.0,0.0, 1,1,0.0
 6, 9,'1 ',0.00000,0.20912,0.00000, 32.0, 32.0, 32.0,0.0,0.0,0.0,0.0, 1,1,0.0
 6,10,'1 ',0.00000,0.55618,0.00000, 32.0, 32.0, 32.0,0.0,0.0,0.0,0.0, 1,1,0.0
 9,11,'1 ',0.00000,0.20912,0.00000, 65.0, 65.0, 65.0,0.0,0.0,0.0,0.0, 1,1,0.0
 9,10,'1 ',0.00000,0.11001,0.00000, 65.0, 65.0, 65.0,0.0,0.0,0.0,0.0, 1,1,0.0
10,20,'1 ',0.09228,0.36268,0.00000, 32.0, 32.0, 32.0,0.0,0.0,0.0,0.0, 1,1,0.0
10,17,'1 ',0.03200,0.16150,0.00000, 32.0, 32.0, 32.0,0.0,0.0,0.0,0.0, 1,1,0.0
10,21,'1 ',0.01900,0.09200,0.00000, 32.0, 32.0, 32.0,0.0,0.0,0.0,0.0, 1,1,0.0
10,22,'1 ',0.07000,0.35000,0.00000, 32.0, 32.0, 32.0,0.0,0.0,0.0,0.0, 1,1,0.0
12,13,'1 ',0.00000,0.14014,0.00000, 65.0, 65.0, 65.0,0.0,0.0,0.0,0.0, 1,1,0.0
12,14,'1 ',0.12291,0.25581,0.00000, 32.0, 32.0, 32.0,0.0,0.0,0.0,0.0, 1,1,0.0
12,15,'1 ',0.06615,0.13027,0.00000, 32.0, 32.0, 32.0,0.0,0.0,0.0,0.0, 1,1,0.0
12,16,'1 ',0.03490,0.07834,0.00000, 32.0, 32.0, 32.0,0.0,0.0,0.0,0.0, 1,1,0.0
14,15,'1 ',0.02210,0.19970,0.00000, 16.0, 16.0, 16.0,0.0,0.0,0.0,0.0, 1,1,0.0
16,17,'1 ',0.08243,0.19248,0.00000, 16.0, 16.0, 16.0,0.0,0.0,0.0,0.0, 1,1,0.0
15,18,'1 ',0.10700,0.21850,0.00000, 16.0, 16.0, 16.0,0.0,0.0,0.0,0.0, 1,1,0.0
18,19,'1 ',0.06390,0.12920,0.00000, 16.0, 16.0, 16.0,0.0,0.0,0.0,0.0, 1,1,0.0
19,20,'1 ',0.03400,0.06800,0.00000, 16.0, 16.0, 16.0,0.0,0.0,0.0,0.0, 1,1,0.0
10,22,'2 ',0.07000,0.35000,0.00000, 32.0, 32.0, 32.0,0.0,0.0,0.0,0.0, 1,1,0.0
22,21,'1 ',0.01500,0.07000,0.00000, 32.0, 32.0, 32.0,0.0,0.0,0.0,0.0, 1,1,0.0
15,23,'1 ',0.10000,0.20200,0.00000, 16.0, 16.0, 16.0,0.0,0.0,0.0,0.0, 1,1,0.0
22,24,'1 ',0.11500,0.17900,0.00000, 16.0, 16.0, 16.0,0.0,0.0,0.0,0.0, 1,1,0.0
23,24,'1 ',0.13200,0.27000,0.00000, 16.0, 16.0, 16.0,0.0,0.0,0.0,0.0, 1,1,0.0
24,25,'1 ',0.18850,0.32920,0.00000, 16.0, 16.0, 16.0,0.0,0.0,0.0,0.0, 1,1,0.0
25,26,'1 ',0.25440,0.38000,0.00000, 16.0, 16.0, 16.0,0.0,0.0,0.0,0.0, 1,1,0.0
25,27,'1 ',0.10930,0.20870,0.00000, 16.0, 16.0, 16.0,0.0,0.0,0.0,0.0, 1,1,0.0
28,27,'1 ',0.00000,0.39600,0.00000, 65.0, 65.0, 65.0,0.0,0.0,0.0,0.0, 1,1,0.0
27,29,'1 ',0.21980,0.41530,0.00000, 16.0, 16.0, 16.0,0.0,0.0,0.0,0.0, 1,1,0.0
27,30,'1 ',0.32020,0.60270,0.00000, 16.0, 16.0, 16.0,0.0,0.0,0.0,0.0, 1,1,0.0
29,30,'1 ',0.23990,0.45330,0.00000, 16.0, 16.0, 16.0,0.0,0.0,0.0,0.0, 1,1,0.0
 8,28,'1 ',0.06360,0.20000,0.04280, 32.0, 32.0, 32.0,0.0,0.0,0.0,0.0, 1,1,0.0
 6,28,'1 ',0.01690,0.05990,0.01300, 32.0, 32.0, 32.0,0.0,0.0,0.0,0.0, 1,1,0.0
32,28,'1 ',0.00850,0.03420,0.00750,200.0,200.0,200.0,0.0,0.0,0.0,0.0, 1,1,0.0
33,30,'1 ',0.00820,0.03310,0.00720,200.0,200.0,200.0,0.0,0.0,0.0,0.0, 1,1,0.0
28,30,'1 ',0.01240,0.05010,0.01100,150.0,150.0,150.0,0.0,0.0,0.0,0.0, 1,1,0.0
28,31,'1 ',0.00960,0.03880,0.00850,150.0,150.0,150.0,0.0,0.0,0.0,0.0, 1,1,0.0
30,31,'1 ',0.01100,0.04440,0.00970,150.0,150.0,150.0,0.0,0.0,0.0,0.0, 1,1,0.0
0 / END OF BRANCH DATA
@TRANSFORMER
 6, 9,'0','1 ', 1, 1,  0.000, 0.000, 1,'BUS6-9  ', 1,1,1,1,0,0,0.00,0.00
  0.00000, 0.20912,100.00
  1.00000,  0.000,  0.0,130.0,130.0,130.0, 0, 9,0.900,1.100,0.900,1.100, 33, 0,0.000,0.000
  1.00000,  0.000
 6,10,'0','1 ', 1, 1,  0.000, 0.000, 1,'BUS6-10 ', 1,1,1,1,0,0,0.00,0.00
  0.00000, 0.55618,100.00
  1.00000,  0.000,  0.0,130.0,130.0,130.0, 0,10,0.900,1.100,0.900,1.100, 33, 0,0.000,0.000
  1.00000,  0.000
 4,12,'0','1 ', 1, 1,  0.000, 0.000, 1,'BUS4-12 ', 1,1,1,1,0,0,0.00,0.00
  0.00000, 0.25600,100.00
  1.00000,  0.000,  0.0,130.0,130.0,130.0, 0,12,0.900,1.100,0.900,1.100, 33, 0,0.000,0.000
  1.00000,  0.000
28,27,'0','1 ', 1, 1,  0.000, 0.000, 1,'BUS28-27', 1,1,1,1,0,0,0.00,0.00
  0.00000, 0.39600,100.00
  1.00000,  0.000,  0.0,130.0,130.0,130.0, 0,27,0.900,1.100,0.900,1.100, 33, 0,0.000,0.000
  1.00000,  0.000
0 / END OF TRANSFORMER DATA
@AREA
 1, 1, 0.000, 0.000,'AREA 1  '
0 / END OF AREA DATA
@ZONE
 1,'ZONE 1  '
0 / END OF ZONE DATA
Q
